data_image0
_chemical_formula_structural       P6Pb9CuO25
_chemical_formula_sum              "P6 Pb9 Cu1 O25"
_cell_length_a       10.0019
_cell_length_b       10.0449
_cell_length_c       7.41188
_cell_angle_alpha    90.5608
_cell_angle_beta     90.167
_cell_angle_gamma    121.486

_space_group_name_H-M_alt    "P 1"
_space_group_IT_number       1

loop_
  _space_group_symop_operation_xyz
  'x, y, z'

loop_
  _atom_site_type_symbol
  _atom_site_label
  _atom_site_symmetry_multiplicity
  _atom_site_fract_x
  _atom_site_fract_y
  _atom_site_fract_z
  _atom_site_occupancy
  P   P1        1.0  0.05922  0.31694  0.77026  1.0000
  P   P2        1.0  0.68960  0.73901  0.76132  1.0000
  P   P3        1.0  0.26160  0.96233  0.73865  1.0000
  P   P4        1.0  0.05853  0.69950  0.25009  1.0000
  P   P5        1.0  0.30259  0.36715  0.23986  1.0000
  P   P6        1.0  0.62224  0.92070  0.22006  1.0000
  Pb  Pb1       1.0  0.40338  0.06038  0.22126  1.0000
  Pb  Pb2       1.0  0.94822  0.34356  0.24005  1.0000
  Pb  Pb3       1.0  0.66741  0.60867  0.24751  1.0000
  Pb  Pb4       1.0  0.44560  0.33439  0.74605  1.0000
  Pb  Pb5       1.0  0.66831  0.10435  0.75288  1.0000
  Pb  Pb6       1.0  0.89692  0.55896  0.77005  1.0000
  Pb  Pb7       1.0  0.00694  0.00574  0.51074  1.0000
  Pb  Pb8       1.0  0.99993  0.99431  0.00341  1.0000
  Pb  Pb9       1.0  0.32801  0.67511  0.51920  1.0000
  Cu  Cu1       1.0  0.36088  0.60681  0.97998  1.0000
  O   O1        1.0  0.95765  0.56855  0.10452  1.0000
  O   O2        1.0  0.42357  0.39367  0.09026  1.0000
  O   O3        1.0  0.59925  0.02075  0.07668  1.0000
  O   O4        1.0  0.04690  0.60642  0.42366  1.0000
  O   O5        1.0  0.39517  0.43936  0.41758  1.0000
  O   O6        1.0  0.55058  0.93979  0.39802  1.0000
  O   O7        1.0  0.07818  0.87272  0.75374  1.0000
  O   O8        1.0  0.13123  0.21163  0.78268  1.0000
  O   O9        1.0  0.79324  0.92135  0.77232  1.0000
  O   O10       1.0  0.19071  0.49470  0.79531  1.0000
  O   O11       1.0  0.51130  0.68505  0.77592  1.0000
  O   O12       1.0  0.32593  0.85271  0.73012  1.0000
  O   O13       1.0  0.22185  0.46308  0.17984  1.0000
  O   O14       1.0  0.52863  0.74031  0.16317  1.0000
  O   O15       1.0  0.23376  0.79916  0.19272  1.0000
  O   O16       1.0  0.17029  0.19391  0.25640  1.0000
  O   O17       1.0  0.79608  0.96987  0.24343  1.0000
  O   O18       1.0  0.98968  0.80621  0.27552  1.0000
  O   O19       1.0  0.30580  0.06904  0.56809  1.0000
  O   O20       1.0  0.97505  0.28990  0.58580  1.0000
  O   O21       1.0  0.72140  0.68150  0.58100  1.0000
  O   O22       1.0  0.33317  0.07583  0.90714  1.0000
  O   O23       1.0  0.93273  0.26684  0.92191  1.0000
  O   O24       1.0  0.74009  0.67046  0.91877  1.0000
  O   O25       1.0  0.66884  0.32914  0.75831  1.0000
