data_image0
_chemical_formula_structural       P6CuPb9O25
_chemical_formula_sum              "P6 Cu1 Pb9 O25"
_cell_length_a       9.73655
_cell_length_b       9.7465
_cell_length_c       7.56608
_cell_angle_alpha    90.2036
_cell_angle_beta     90.1287
_cell_angle_gamma    118.005

_space_group_name_H-M_alt    "P 1"
_space_group_IT_number       1

loop_
  _space_group_symop_operation_xyz
  'x, y, z'

loop_
  _atom_site_type_symbol
  _atom_site_label
  _atom_site_symmetry_multiplicity
  _atom_site_fract_x
  _atom_site_fract_y
  _atom_site_fract_z
  _atom_site_occupancy
  P   P1        1.0  0.03455  0.30296  0.74990  1.0000
  P   P2        1.0  0.69648  0.74185  0.75516  1.0000
  P   P3        1.0  0.26426  0.95889  0.75932  1.0000
  P   P4        1.0  0.06955  0.71000  0.24844  1.0000
  P   P5        1.0  0.31320  0.33774  0.23210  1.0000
  P   P6        1.0  0.63098  0.95029  0.27084  1.0000
  Cu  Cu1       1.0  0.37685  0.04991  0.16832  1.0000
  Pb  Pb1       1.0  0.92023  0.33338  0.25977  1.0000
  Pb  Pb2       1.0  0.66717  0.60175  0.22622  1.0000
  Pb  Pb3       1.0  0.43591  0.33702  0.71339  1.0000
  Pb  Pb4       1.0  0.66039  0.11409  0.74915  1.0000
  Pb  Pb5       1.0  0.89415  0.55946  0.73362  1.0000
  Pb  Pb6       1.0  0.00064  0.98760  0.52327  1.0000
  Pb  Pb7       1.0  0.99393  0.01344  0.01234  1.0000
  Pb  Pb8       1.0  0.34385  0.69026  0.50575  1.0000
  Pb  Pb9       1.0  0.31002  0.63841  0.98695  1.0000
  O   O1        1.0  0.02858  0.59724  0.08615  1.0000
  O   O2        1.0  0.41988  0.42215  0.07103  1.0000
  O   O3        1.0  0.57045  0.03919  0.14559  1.0000
  O   O4        1.0  0.03079  0.60696  0.41856  1.0000
  O   O5        1.0  0.41167  0.41428  0.40112  1.0000
  O   O6        1.0  0.57115  0.94614  0.46159  1.0000
  O   O7        1.0  0.08484  0.88533  0.79412  1.0000
  O   O8        1.0  0.11544  0.19729  0.76210  1.0000
  O   O9        1.0  0.79130  0.92241  0.78009  1.0000
  O   O10       1.0  0.16039  0.47695  0.74482  1.0000
  O   O11       1.0  0.51802  0.68334  0.74612  1.0000
  O   O12       1.0  0.31139  0.82578  0.75396  1.0000
  O   O13       1.0  0.16801  0.36591  0.22346  1.0000
  O   O14       1.0  0.56653  0.77663  0.20538  1.0000
  O   O15       1.0  0.24989  0.82201  0.24812  1.0000
  O   O16       1.0  0.25415  0.15692  0.22740  1.0000
  O   O17       1.0  0.81184  0.03357  0.26308  1.0000
  O   O18       1.0  0.97755  0.80445  0.24544  1.0000
  O   O19       1.0  0.30121  0.05226  0.58523  1.0000
  O   O20       1.0  0.93085  0.25663  0.57934  1.0000
  O   O21       1.0  0.75846  0.70204  0.58078  1.0000
  O   O22       1.0  0.36104  0.07925  0.90771  1.0000
  O   O23       1.0  0.92343  0.26893  0.91183  1.0000
  O   O24       1.0  0.73603  0.66137  0.91187  1.0000
  O   O25       1.0  0.66828  0.34258  0.68480  1.0000
