data_image0
_chemical_formula_structural       P6Pb9CuO25
_chemical_formula_sum              "P6 Pb9 Cu1 O25"
_cell_length_a       9.8719
_cell_length_b       9.87433
_cell_length_c       7.3978
_cell_angle_alpha    89.7687
_cell_angle_beta     90.1261
_cell_angle_gamma    119.949

_space_group_name_H-M_alt    "P 1"
_space_group_IT_number       1

loop_
  _space_group_symop_operation_xyz
  'x, y, z'

loop_
  _atom_site_type_symbol
  _atom_site_label
  _atom_site_symmetry_multiplicity
  _atom_site_fract_x
  _atom_site_fract_y
  _atom_site_fract_z
  _atom_site_occupancy
  P   P1        1.0  0.04665  0.30903  0.75518  1.0000
  P   P2        1.0  0.68905  0.73694  0.75650  1.0000
  P   P3        1.0  0.26378  0.95034  0.75880  1.0000
  P   P4        1.0  0.06512  0.69786  0.23519  1.0000
  P   P5        1.0  0.30268  0.36982  0.23301  1.0000
  P   P6        1.0  0.63120  0.93400  0.23509  1.0000
  Pb  Pb1       1.0  0.39386  0.05678  0.23565  1.0000
  Pb  Pb2       1.0  0.94536  0.33729  0.23172  1.0000
  Pb  Pb3       1.0  0.66289  0.60794  0.23402  1.0000
  Pb  Pb4       1.0  0.43945  0.33607  0.75738  1.0000
  Pb  Pb5       1.0  0.66474  0.10369  0.75647  1.0000
  Pb  Pb6       1.0  0.89929  0.56455  0.75671  1.0000
  Pb  Pb7       1.0  0.99917  0.00046  0.51061  1.0000
  Pb  Pb8       1.0  0.99919  0.00082  0.00318  1.0000
  Pb  Pb9       1.0  0.33254  0.66571  0.52567  1.0000
  Cu  Cu1       1.0  0.33482  0.67136  0.99214  1.0000
  O   O1        1.0  0.96085  0.57011  0.09277  1.0000
  O   O2        1.0  0.43059  0.38994  0.09272  1.0000
  O   O3        1.0  0.61145  0.04268  0.09506  1.0000
  O   O4        1.0  0.04840  0.60684  0.41400  1.0000
  O   O5        1.0  0.39244  0.44372  0.41203  1.0000
  O   O6        1.0  0.55657  0.94838  0.41397  1.0000
  O   O7        1.0  0.08058  0.86590  0.77243  1.0000
  O   O8        1.0  0.13469  0.21364  0.76634  1.0000
  O   O9        1.0  0.78597  0.92013  0.76743  1.0000
  O   O10       1.0  0.16053  0.48830  0.76647  1.0000
  O   O11       1.0  0.50977  0.67338  0.76822  1.0000
  O   O12       1.0  0.32431  0.83191  0.77352  1.0000
  O   O13       1.0  0.21836  0.46155  0.16621  1.0000
  O   O14       1.0  0.54006  0.75868  0.16749  1.0000
  O   O15       1.0  0.24177  0.78473  0.17201  1.0000
  O   O16       1.0  0.17596  0.19481  0.25607  1.0000
  O   O17       1.0  0.80613  0.98170  0.25787  1.0000
  O   O18       1.0  0.01309  0.82179  0.25631  1.0000
  O   O19       1.0  0.31390  0.04537  0.57889  1.0000
  O   O20       1.0  0.94721  0.25997  0.57826  1.0000
  O   O21       1.0  0.73686  0.68651  0.57919  1.0000
  O   O22       1.0  0.33250  0.07297  0.91672  1.0000
  O   O23       1.0  0.92681  0.25300  0.91713  1.0000
  O   O24       1.0  0.74381  0.67100  0.91774  1.0000
  O   O25       1.0  0.67092  0.33698  0.75806  1.0000
